TEST.fds
Generated by PyroSim - Version 2018.2.0730
Apr 24, 2019 7:39:10 AM

&HEAD CHID='TEST'/
&TIME T_END=3000.0/
&DUMP RENDER_FILE='TEST.ge1', COLUMN_DUMP_LIMIT=.TRUE., DT_RESTART=300.0, DT_SL3D=0.25/
&MISC TMPA=25.0/

&MESH ID='Mesh01-a', IJK=17,12,17, XB=-0.5,0.35,-1.5,-0.9,0.0,0.85/
&MESH ID='Mesh01-b', IJK=17,12,13, XB=-0.5,0.35,-1.5,-0.9,0.85,1.5/
&MESH ID='Mesh01-c', IJK=17,12,12, XB=-0.5,0.35,-1.5,-0.9,1.5,2.1/
&MESH ID='Mesh01-d', IJK=17,12,18, XB=-0.5,0.35,-1.5,-0.9,2.1,3.0/
&MESH ID='Mesh01-e', IJK=17,21,17, XB=-0.5,0.35,-0.9,0.15,0.0,0.85/
&MESH ID='Mesh01-f', IJK=17,21,13, XB=-0.5,0.35,-0.9,0.15,0.85,1.5/
&MESH ID='Mesh01-g', IJK=17,21,12, XB=-0.5,0.35,-0.9,0.15,1.5,2.1/
&MESH ID='Mesh01-h', IJK=17,21,18, XB=-0.5,0.35,-0.9,0.15,2.1,3.0/
&MESH ID='Mesh01-i', IJK=17,18,17, XB=-0.5,0.35,0.15,1.05,0.0,0.85/
&MESH ID='Mesh01-j', IJK=17,18,13, XB=-0.5,0.35,0.15,1.05,0.85,1.5/
&MESH ID='Mesh01-k', IJK=17,18,12, XB=-0.5,0.35,0.15,1.05,1.5,2.1/
&MESH ID='Mesh01-l', IJK=17,18,18, XB=-0.5,0.35,0.15,1.05,2.1,3.0/
&MESH ID='Mesh01-m', IJK=17,49,17, XB=-0.5,0.35,1.05,3.5,0.0,0.85/
&MESH ID='Mesh01-n', IJK=17,49,13, XB=-0.5,0.35,1.05,3.5,0.85,1.5/
&MESH ID='Mesh01-o', IJK=17,49,12, XB=-0.5,0.35,1.05,3.5,1.5,2.1/
&MESH ID='Mesh01-p', IJK=17,49,18, XB=-0.5,0.35,1.05,3.5,2.1,3.0/
&MESH ID='Mesh01-q', IJK=19,12,17, XB=0.35,1.3,-1.5,-0.9,0.0,0.85/
&MESH ID='Mesh01-r', IJK=19,12,13, XB=0.35,1.3,-1.5,-0.9,0.85,1.5/
&MESH ID='Mesh01-s', IJK=19,12,12, XB=0.35,1.3,-1.5,-0.9,1.5,2.1/
&MESH ID='Mesh01-t', IJK=19,12,18, XB=0.35,1.3,-1.5,-0.9,2.1,3.0/
&MESH ID='Mesh01-u', IJK=19,21,17, XB=0.35,1.3,-0.9,0.15,0.0,0.85/
&MESH ID='Mesh01-v', IJK=19,21,13, XB=0.35,1.3,-0.9,0.15,0.85,1.5/
&MESH ID='Mesh01-w', IJK=19,21,12, XB=0.35,1.3,-0.9,0.15,1.5,2.1/
&MESH ID='Mesh01-x', IJK=19,21,18, XB=0.35,1.3,-0.9,0.15,2.1,3.0/
&MESH ID='Mesh01-y', IJK=19,18,17, XB=0.35,1.3,0.15,1.05,0.0,0.85/
&MESH ID='Mesh01-z', IJK=19,18,13, XB=0.35,1.3,0.15,1.05,0.85,1.5/
&MESH ID='Mesh01-{', IJK=19,18,12, XB=0.35,1.3,0.15,1.05,1.5,2.1/
&MESH ID='Mesh01-|', IJK=19,18,18, XB=0.35,1.3,0.15,1.05,2.1,3.0/
&MESH ID='Mesh01-}', IJK=19,49,17, XB=0.35,1.3,1.05,3.5,0.0,0.85/
&MESH ID='Mesh01-~', IJK=19,49,13, XB=0.35,1.3,1.05,3.5,0.85,1.5/
&MESH ID='Mesh01-', IJK=19,49,12, XB=0.35,1.3,1.05,3.5,1.5,2.1/
&MESH ID='Mesh01-', IJK=19,49,18, XB=0.35,1.3,1.05,3.5,2.1,3.0/
&MESH ID='Mesh01-', IJK=20,12,17, XB=1.3,2.3,-1.5,-0.9,0.0,0.85/
&MESH ID='Mesh01-', IJK=20,12,13, XB=1.3,2.3,-1.5,-0.9,0.85,1.5/
&MESH ID='Mesh01-', IJK=20,12,12, XB=1.3,2.3,-1.5,-0.9,1.5,2.1/
&MESH ID='Mesh01-', IJK=20,12,18, XB=1.3,2.3,-1.5,-0.9,2.1,3.0/
&MESH ID='Mesh01-', IJK=20,21,17, XB=1.3,2.3,-0.9,0.15,0.0,0.85/
&MESH ID='Mesh01-', IJK=20,21,13, XB=1.3,2.3,-0.9,0.15,0.85,1.5/
&MESH ID='Mesh01-', IJK=20,21,12, XB=1.3,2.3,-0.9,0.15,1.5,2.1/
&MESH ID='Mesh01-', IJK=20,21,18, XB=1.3,2.3,-0.9,0.15,2.1,3.0/
&MESH ID='Mesh01-', IJK=20,18,17, XB=1.3,2.3,0.15,1.05,0.0,0.85/
&MESH ID='Mesh01-', IJK=20,18,13, XB=1.3,2.3,0.15,1.05,0.85,1.5/
&MESH ID='Mesh01-', IJK=20,18,12, XB=1.3,2.3,0.15,1.05,1.5,2.1/
&MESH ID='Mesh01-', IJK=20,18,18, XB=1.3,2.3,0.15,1.05,2.1,3.0/
&MESH ID='Mesh01-', IJK=20,49,17, XB=1.3,2.3,1.05,3.5,0.0,0.85/
&MESH ID='Mesh01-', IJK=20,49,13, XB=1.3,2.3,1.05,3.5,0.85,1.5/
&MESH ID='Mesh01-', IJK=20,49,12, XB=1.3,2.3,1.05,3.5,1.5,2.1/
&MESH ID='Mesh01-', IJK=20,49,18, XB=1.3,2.3,1.05,3.5,2.1,3.0/
&MESH ID='Mesh01-', IJK=26,12,17, XB=2.3,3.6,-1.5,-0.9,0.0,0.85/
&MESH ID='Mesh01-', IJK=26,12,13, XB=2.3,3.6,-1.5,-0.9,0.85,1.5/
&MESH ID='Mesh01-', IJK=26,12,12, XB=2.3,3.6,-1.5,-0.9,1.5,2.1/
&MESH ID='Mesh01-', IJK=26,12,18, XB=2.3,3.6,-1.5,-0.9,2.1,3.0/
&MESH ID='Mesh01-', IJK=26,21,17, XB=2.3,3.6,-0.9,0.15,0.0,0.85/
&MESH ID='Mesh01-', IJK=26,21,13, XB=2.3,3.6,-0.9,0.15,0.85,1.5/
&MESH ID='Mesh01-', IJK=26,21,12, XB=2.3,3.6,-0.9,0.15,1.5,2.1/
&MESH ID='Mesh01-', IJK=26,21,18, XB=2.3,3.6,-0.9,0.15,2.1,3.0/
&MESH ID='Mesh01-', IJK=26,18,17, XB=2.3,3.6,0.15,1.05,0.0,0.85/
&MESH ID='Mesh01-', IJK=26,18,13, XB=2.3,3.6,0.15,1.05,0.85,1.5/
&MESH ID='Mesh01-', IJK=26,18,12, XB=2.3,3.6,0.15,1.05,1.5,2.1/
&MESH ID='Mesh01-', IJK=26,18,18, XB=2.3,3.6,0.15,1.05,2.1,3.0/
&MESH ID='Mesh01-', IJK=26,49,17, XB=2.3,3.6,1.05,3.5,0.0,0.85/
&MESH ID='Mesh01-', IJK=26,49,13, XB=2.3,3.6,1.05,3.5,0.85,1.5/
&MESH ID='Mesh01-', IJK=26,49,12, XB=2.3,3.6,1.05,3.5,1.5,2.1/
&MESH ID='Mesh01- ', IJK=26,49,18, XB=2.3,3.6,1.05,3.5,2.1,3.0/
&MESH ID='Mesh01-¡', IJK=18,12,17, XB=3.6,4.5,-1.5,-0.9,0.0,0.85/
&MESH ID='Mesh01-¢', IJK=18,12,13, XB=3.6,4.5,-1.5,-0.9,0.85,1.5/
&MESH ID='Mesh01-£', IJK=18,12,12, XB=3.6,4.5,-1.5,-0.9,1.5,2.1/
&MESH ID='Mesh01-¤', IJK=18,12,18, XB=3.6,4.5,-1.5,-0.9,2.1,3.0/
&MESH ID='Mesh01-¥', IJK=18,21,17, XB=3.6,4.5,-0.9,0.15,0.0,0.85/
&MESH ID='Mesh01-¦', IJK=18,21,13, XB=3.6,4.5,-0.9,0.15,0.85,1.5/
&MESH ID='Mesh01-§', IJK=18,21,12, XB=3.6,4.5,-0.9,0.15,1.5,2.1/
&MESH ID='Mesh01-¨', IJK=18,21,18, XB=3.6,4.5,-0.9,0.15,2.1,3.0/
&MESH ID='Mesh01-©', IJK=18,18,17, XB=3.6,4.5,0.15,1.05,0.0,0.85/
&MESH ID='Mesh01-ª', IJK=18,18,13, XB=3.6,4.5,0.15,1.05,0.85,1.5/
&MESH ID='Mesh01-«', IJK=18,18,12, XB=3.6,4.5,0.15,1.05,1.5,2.1/
&MESH ID='Mesh01-¬', IJK=18,18,18, XB=3.6,4.5,0.15,1.05,2.1,3.0/
&MESH ID='Mesh01-­', IJK=18,49,17, XB=3.6,4.5,1.05,3.5,0.0,0.85/
&MESH ID='Mesh01-®', IJK=18,49,13, XB=3.6,4.5,1.05,3.5,0.85,1.5/
&MESH ID='Mesh01-¯', IJK=18,49,12, XB=3.6,4.5,1.05,3.5,1.5,2.1/
&MESH ID='Mesh01-°', IJK=18,49,18, XB=3.6,4.5,1.05,3.5,2.1,3.0/


&REAC ID='WOOD',
      FUEL='REAC_FUEL',
      C=3.4,
      H=6.2,
      O=2.5,
      AUTO_IGNITION_TEMPERATURE=0.0,
      SOOT_H_FRACTION=0.0,
      SOOT_YIELD=0.03,
      HEAT_OF_COMBUSTION=1.8E4/

&PROP ID='THCP4 props', BEAD_DIAMETER=6.0E-3/
&PROP ID='THCP5 props', BEAD_DIAMETER=6.0E-3/
&PROP ID='THCP6 props', BEAD_DIAMETER=6.0E-3/
&PROP ID='THCP7 props', BEAD_DIAMETER=6.0E-3/
&PROP ID='THCP8 props', BEAD_DIAMETER=6.0E-3/
&PROP ID='THCP9 props', BEAD_DIAMETER=6.0E-3/
&PROP ID='THCP10 props', BEAD_DIAMETER=6.0E-3/
&PROP ID='THCP11 props', BEAD_DIAMETER=6.0E-3/
&DEVC ID='THCP4', PROP_ID='THCP4 props', QUANTITY='THERMOCOUPLE', XYZ=1.5,1.5,2.15/
&DEVC ID='THCP5', PROP_ID='THCP5 props', QUANTITY='THERMOCOUPLE', XYZ=1.5,0.5,2.15/
&DEVC ID='THCP6', PROP_ID='THCP6 props', QUANTITY='THERMOCOUPLE', XYZ=1.5,2.5,2.15/
&DEVC ID='THCP7', PROP_ID='THCP7 props', QUANTITY='THERMOCOUPLE', XYZ=1.5,2.85,2.0, ORIENTATION=0.0,-1.0,0.0/
&DEVC ID='THCP8', PROP_ID='THCP8 props', QUANTITY='THERMOCOUPLE', XYZ=1.5,2.85,1.55, ORIENTATION=0.0,-1.0,0.0/
&DEVC ID='THCP9', PROP_ID='THCP9 props', QUANTITY='THERMOCOUPLE', XYZ=1.5,2.85,1.1, ORIENTATION=0.0,-1.0,0.0/
&DEVC ID='THCP10', PROP_ID='THCP10 props', QUANTITY='THERMOCOUPLE', XYZ=1.5,2.85,0.65, ORIENTATION=0.0,-1.0,0.0/
&DEVC ID='THCP11', PROP_ID='THCP11 props', QUANTITY='THERMOCOUPLE', XYZ=1.5,2.85,0.2, ORIENTATION=0.0,-1.0,0.0/
&DEVC ID='FLUX', QUANTITY='RADIATIVE HEAT FLUX GAS', XYZ=1.0,0.0,1.75, ORIENTATION=0.0,1.0,0.0/
&DEVC ID='FLUX1', QUANTITY='RADIATIVE HEAT FLUX GAS', XYZ=1.0,0.0,1.25, ORIENTATION=0.0,1.0,0.0/
&DEVC ID='FLUX2', QUANTITY='RADIATIVE HEAT FLUX GAS', XYZ=1.0,0.0,0.75, ORIENTATION=0.0,1.0,0.0/
&DEVC ID='FLUX3', QUANTITY='RADIATIVE HEAT FLUX GAS', XYZ=1.0,0.0,0.25, ORIENTATION=0.0,1.0,0.0/
&DEVC ID='FLUX4', QUANTITY='RADIATIVE HEAT FLUX GAS', XYZ=3.2,2.3,1.93, ORIENTATION=-1.0,0.0,0.0/
&DEVC ID='FLUX5', QUANTITY='RADIATIVE HEAT FLUX GAS', XYZ=3.2,2.3,1.73, ORIENTATION=-1.0,0.0,0.0/
&DEVC ID='FLUX6', QUANTITY='RADIATIVE HEAT FLUX GAS', XYZ=3.2,2.3,1.53, ORIENTATION=-1.0,0.0,0.0/
&DEVC ID='FLUX7', QUANTITY='RADIATIVE HEAT FLUX GAS', XYZ=4.0,2.3,1.53, ORIENTATION=-1.0,0.0,0.0/
&DEVC ID='FLUX8', QUANTITY='RADIATIVE HEAT FLUX GAS', XYZ=4.0,2.3,1.73, ORIENTATION=-1.0,0.0,0.0/
&DEVC ID='FLUX9', QUANTITY='RADIATIVE HEAT FLUX GAS', XYZ=4.0,2.3,1.93, ORIENTATION=-1.0,0.0,0.0/
&DEVC ID='FLUX10', QUANTITY='RADIATIVE HEAT FLUX GAS', XYZ=1.2,-1.0,0.25, ORIENTATION=0.0,1.0,0.0/
&DEVC ID='FLUX11', QUANTITY='RADIATIVE HEAT FLUX GAS', XYZ=1.2,-1.0,0.75, ORIENTATION=0.0,1.0,0.0/
&DEVC ID='FLUX12', QUANTITY='RADIATIVE HEAT FLUX GAS', XYZ=1.2,-1.0,1.25, ORIENTATION=0.0,1.0,0.0/
&DEVC ID='FLUX16', QUANTITY='RADIATIVE HEAT FLUX GAS', XYZ=1.2,-1.0,1.75, ORIENTATION=0.0,1.0,0.0/
&DEVC ID='TIMER->OUT', QUANTITY='TIME', XYZ=-0.5,-1.5,0.0, SETPOINT=288.0, INITIAL_STATE=.TRUE./

&MATL ID='WOOD_MATL',
      SPECIFIC_HEAT=1.3,
      CONDUCTIVITY=0.14,
      DENSITY=515.0,
      HEAT_OF_COMBUSTION=2.38E4/
&MATL ID='STEEL_MATL',
      SPECIFIC_HEAT=0.6,
      CONDUCTIVITY=45.0,
      DENSITY=7850.0,
      EMISSIVITY=0.42/
&MATL ID='CORRUGATEDCARDBOARD_MATL',
      SPECIFIC_HEAT=2.7,
      CONDUCTIVITY=0.42,
      DENSITY=5.4,
      HEAT_OF_COMBUSTION=1.69E4/
&MATL ID='WOOD_MATL_WALL',
      SPECIFIC_HEAT=1.3,
      CONDUCTIVITY=0.14,
      DENSITY=128.64,
      HEAT_OF_COMBUSTION=1.8E4/

&SURF ID='WOOD',
      COLOR='ORANGE',
      HRRPUA=241.5,
      RAMP_Q='WOOD_RAMP_Q',
      IGNITION_TEMPERATURE=350.0,
      BURN_AWAY=.TRUE.,
      BACKING='VOID',
      MATL_ID(1,1)='WOOD_MATL',
      MATL_MASS_FRACTION(1,1)=1.0,
      THICKNESS(1)=0.025,
      GEOMETRY='CARTESIAN',
      LENGTH=0.0,
      WIDTH=0.0/
&RAMP ID='WOOD_RAMP_Q', T=0.0, F=0.06/
&RAMP ID='WOOD_RAMP_Q', T=1.01, F=0.03/
&RAMP ID='WOOD_RAMP_Q', T=2.03, F=0.1/
&RAMP ID='WOOD_RAMP_Q', T=3.04, F=0.1/
&RAMP ID='WOOD_RAMP_Q', T=4.06, F=0.24/
&RAMP ID='WOOD_RAMP_Q', T=5.07, F=0.24/
&RAMP ID='WOOD_RAMP_Q', T=6.08, F=0.25/
&RAMP ID='WOOD_RAMP_Q', T=7.1, F=0.31/
&RAMP ID='WOOD_RAMP_Q', T=8.11, F=0.37/
&RAMP ID='WOOD_RAMP_Q', T=9.13, F=0.44/
&RAMP ID='WOOD_RAMP_Q', T=10.14, F=0.44/
&RAMP ID='WOOD_RAMP_Q', T=11.15, F=0.46/
&RAMP ID='WOOD_RAMP_Q', T=12.17, F=0.67/
&RAMP ID='WOOD_RAMP_Q', T=13.18, F=0.74/
&RAMP ID='WOOD_RAMP_Q', T=14.2, F=0.66/
&RAMP ID='WOOD_RAMP_Q', T=15.21, F=0.5/
&RAMP ID='WOOD_RAMP_Q', T=16.22, F=0.85/
&RAMP ID='WOOD_RAMP_Q', T=17.24, F=0.64/
&RAMP ID='WOOD_RAMP_Q', T=18.25, F=0.83/
&RAMP ID='WOOD_RAMP_Q', T=19.27, F=0.71/
&RAMP ID='WOOD_RAMP_Q', T=20.28, F=0.8/
&RAMP ID='WOOD_RAMP_Q', T=21.29, F=0.78/
&RAMP ID='WOOD_RAMP_Q', T=22.31, F=0.77/
&RAMP ID='WOOD_RAMP_Q', T=23.32, F=0.73/
&RAMP ID='WOOD_RAMP_Q', T=24.34, F=0.92/
&RAMP ID='WOOD_RAMP_Q', T=25.35, F=0.81/
&RAMP ID='WOOD_RAMP_Q', T=26.36, F=0.86/
&RAMP ID='WOOD_RAMP_Q', T=27.38, F=1.0/
&RAMP ID='WOOD_RAMP_Q', T=28.39, F=0.88/
&RAMP ID='WOOD_RAMP_Q', T=29.41, F=0.81/
&RAMP ID='WOOD_RAMP_Q', T=30.42, F=0.86/
&RAMP ID='WOOD_RAMP_Q', T=31.43, F=0.85/
&RAMP ID='WOOD_RAMP_Q', T=32.45, F=0.8/
&RAMP ID='WOOD_RAMP_Q', T=33.46, F=0.75/
&RAMP ID='WOOD_RAMP_Q', T=34.48, F=0.75/
&RAMP ID='WOOD_RAMP_Q', T=35.49, F=0.79/
&RAMP ID='WOOD_RAMP_Q', T=36.5, F=0.75/
&RAMP ID='WOOD_RAMP_Q', T=37.52, F=0.82/
&RAMP ID='WOOD_RAMP_Q', T=38.53, F=0.87/
&RAMP ID='WOOD_RAMP_Q', T=39.55, F=0.73/
&RAMP ID='WOOD_RAMP_Q', T=40.56, F=0.74/
&RAMP ID='WOOD_RAMP_Q', T=41.57, F=0.66/
&RAMP ID='WOOD_RAMP_Q', T=42.59, F=0.69/
&RAMP ID='WOOD_RAMP_Q', T=43.6, F=0.84/
&RAMP ID='WOOD_RAMP_Q', T=44.62, F=0.68/
&RAMP ID='WOOD_RAMP_Q', T=45.63, F=0.61/
&RAMP ID='WOOD_RAMP_Q', T=46.64, F=0.65/
&RAMP ID='WOOD_RAMP_Q', T=47.66, F=0.59/
&RAMP ID='WOOD_RAMP_Q', T=48.67, F=0.64/
&RAMP ID='WOOD_RAMP_Q', T=49.69, F=0.68/
&RAMP ID='WOOD_RAMP_Q', T=50.7, F=0.68/
&RAMP ID='WOOD_RAMP_Q', T=51.72, F=0.74/
&RAMP ID='WOOD_RAMP_Q', T=52.73, F=0.64/
&RAMP ID='WOOD_RAMP_Q', T=53.74, F=0.6/
&RAMP ID='WOOD_RAMP_Q', T=54.76, F=0.6/
&RAMP ID='WOOD_RAMP_Q', T=55.77, F=0.56/
&RAMP ID='WOOD_RAMP_Q', T=56.78, F=0.5/
&RAMP ID='WOOD_RAMP_Q', T=57.8, F=0.62/
&RAMP ID='WOOD_RAMP_Q', T=58.81, F=0.55/
&RAMP ID='WOOD_RAMP_Q', T=59.83, F=0.68/
&RAMP ID='WOOD_RAMP_Q', T=60.84, F=0.54/
&RAMP ID='WOOD_RAMP_Q', T=61.85, F=0.64/
&RAMP ID='WOOD_RAMP_Q', T=62.87, F=0.67/
&RAMP ID='WOOD_RAMP_Q', T=63.88, F=0.65/
&RAMP ID='WOOD_RAMP_Q', T=64.9, F=0.58/
&RAMP ID='WOOD_RAMP_Q', T=65.91, F=0.67/
&RAMP ID='WOOD_RAMP_Q', T=66.93, F=0.63/
&RAMP ID='WOOD_RAMP_Q', T=67.94, F=0.66/
&RAMP ID='WOOD_RAMP_Q', T=68.95, F=0.64/
&RAMP ID='WOOD_RAMP_Q', T=70.54, F=0.61/
&RAMP ID='WOOD_RAMP_Q', T=71.02, F=0.56/
&RAMP ID='WOOD_RAMP_Q', T=71.99, F=0.59/
&RAMP ID='WOOD_RAMP_Q', T=73.01, F=0.54/
&RAMP ID='WOOD_RAMP_Q', T=74.02, F=0.68/
&RAMP ID='WOOD_RAMP_Q', T=75.04, F=0.6/
&RAMP ID='WOOD_RAMP_Q', T=76.05, F=0.75/
&RAMP ID='WOOD_RAMP_Q', T=77.35, F=0.55/
&RAMP ID='WOOD_RAMP_Q', T=78.08, F=0.73/
&RAMP ID='WOOD_RAMP_Q', T=79.09, F=0.55/
&RAMP ID='WOOD_RAMP_Q', T=80.11, F=0.63/
&RAMP ID='WOOD_RAMP_Q', T=81.12, F=0.55/
&RAMP ID='WOOD_RAMP_Q', T=82.13, F=0.59/
&RAMP ID='WOOD_RAMP_Q', T=83.15, F=0.56/
&RAMP ID='WOOD_RAMP_Q', T=84.16, F=0.52/
&RAMP ID='WOOD_RAMP_Q', T=85.18, F=0.57/
&RAMP ID='WOOD_RAMP_Q', T=86.19, F=0.62/
&RAMP ID='WOOD_RAMP_Q', T=87.21, F=0.47/
&RAMP ID='WOOD_RAMP_Q', T=88.22, F=0.53/
&RAMP ID='WOOD_RAMP_Q', T=89.23, F=0.64/
&RAMP ID='WOOD_RAMP_Q', T=90.25, F=0.48/
&RAMP ID='WOOD_RAMP_Q', T=91.26, F=0.5/
&RAMP ID='WOOD_RAMP_Q', T=92.28, F=0.44/
&RAMP ID='WOOD_RAMP_Q', T=93.29, F=0.45/
&RAMP ID='WOOD_RAMP_Q', T=94.3, F=0.45/
&RAMP ID='WOOD_RAMP_Q', T=95.32, F=0.46/
&RAMP ID='WOOD_RAMP_Q', T=96.33, F=0.46/
&RAMP ID='WOOD_RAMP_Q', T=97.34, F=0.57/
&RAMP ID='WOOD_RAMP_Q', T=98.36, F=0.52/
&RAMP ID='WOOD_RAMP_Q', T=99.37, F=0.58/
&RAMP ID='WOOD_RAMP_Q', T=100.39, F=0.49/
&RAMP ID='WOOD_RAMP_Q', T=101.4, F=0.52/
&RAMP ID='WOOD_RAMP_Q', T=102.42, F=0.45/
&RAMP ID='WOOD_RAMP_Q', T=103.43, F=0.49/
&RAMP ID='WOOD_RAMP_Q', T=104.44, F=0.39/
&RAMP ID='WOOD_RAMP_Q', T=105.46, F=0.43/
&RAMP ID='WOOD_RAMP_Q', T=106.47, F=0.42/
&RAMP ID='WOOD_RAMP_Q', T=107.49, F=0.43/
&RAMP ID='WOOD_RAMP_Q', T=108.5, F=0.37/
&RAMP ID='WOOD_RAMP_Q', T=109.51, F=0.48/
&RAMP ID='WOOD_RAMP_Q', T=110.53, F=0.4/
&RAMP ID='WOOD_RAMP_Q', T=111.54, F=0.46/
&RAMP ID='WOOD_RAMP_Q', T=112.56, F=0.43/
&RAMP ID='WOOD_RAMP_Q', T=113.57, F=0.42/
&RAMP ID='WOOD_RAMP_Q', T=114.58, F=0.4/
&RAMP ID='WOOD_RAMP_Q', T=115.6, F=0.4/
&RAMP ID='WOOD_RAMP_Q', T=116.61, F=0.39/
&RAMP ID='WOOD_RAMP_Q', T=117.62, F=0.47/
&RAMP ID='WOOD_RAMP_Q', T=118.64, F=0.41/
&RAMP ID='WOOD_RAMP_Q', T=119.65, F=0.46/
&RAMP ID='WOOD_RAMP_Q', T=120.67, F=0.41/
&RAMP ID='WOOD_RAMP_Q', T=121.68, F=0.42/
&RAMP ID='WOOD_RAMP_Q', T=122.7, F=0.38/
&RAMP ID='WOOD_RAMP_Q', T=123.71, F=0.45/
&RAMP ID='WOOD_RAMP_Q', T=124.72, F=0.4/
&RAMP ID='WOOD_RAMP_Q', T=125.74, F=0.41/
&RAMP ID='WOOD_RAMP_Q', T=126.75, F=0.37/
&RAMP ID='WOOD_RAMP_Q', T=127.76, F=0.41/
&RAMP ID='WOOD_RAMP_Q', T=128.78, F=0.38/
&RAMP ID='WOOD_RAMP_Q', T=129.79, F=0.48/
&RAMP ID='WOOD_RAMP_Q', T=130.81, F=0.45/
&RAMP ID='WOOD_RAMP_Q', T=131.82, F=0.37/
&RAMP ID='WOOD_RAMP_Q', T=132.83, F=0.43/
&RAMP ID='WOOD_RAMP_Q', T=133.85, F=0.39/
&RAMP ID='WOOD_RAMP_Q', T=134.86, F=0.4/
&RAMP ID='WOOD_RAMP_Q', T=135.88, F=0.33/
&RAMP ID='WOOD_RAMP_Q', T=136.89, F=0.41/
&RAMP ID='WOOD_RAMP_Q', T=137.91, F=0.44/
&RAMP ID='WOOD_RAMP_Q', T=138.92, F=0.41/
&RAMP ID='WOOD_RAMP_Q', T=139.93, F=0.37/
&RAMP ID='WOOD_RAMP_Q', T=140.95, F=0.44/
&RAMP ID='WOOD_RAMP_Q', T=141.96, F=0.36/
&RAMP ID='WOOD_RAMP_Q', T=142.98, F=0.51/
&RAMP ID='WOOD_RAMP_Q', T=143.99, F=0.35/
&RAMP ID='WOOD_RAMP_Q', T=145.0, F=0.44/
&RAMP ID='WOOD_RAMP_Q', T=146.02, F=0.41/
&RAMP ID='WOOD_RAMP_Q', T=147.03, F=0.42/
&RAMP ID='WOOD_RAMP_Q', T=148.04, F=0.32/
&RAMP ID='WOOD_RAMP_Q', T=149.06, F=0.42/
&RAMP ID='WOOD_RAMP_Q', T=150.07, F=0.3/
&RAMP ID='WOOD_RAMP_Q', T=151.09, F=0.49/
&RAMP ID='WOOD_RAMP_Q', T=152.1, F=0.39/
&RAMP ID='WOOD_RAMP_Q', T=153.11, F=0.4/
&RAMP ID='WOOD_RAMP_Q', T=154.13, F=0.42/
&RAMP ID='WOOD_RAMP_Q', T=155.14, F=0.49/
&RAMP ID='WOOD_RAMP_Q', T=156.16, F=0.41/
&RAMP ID='WOOD_RAMP_Q', T=157.17, F=0.42/
&RAMP ID='WOOD_RAMP_Q', T=158.19, F=0.34/
&RAMP ID='WOOD_RAMP_Q', T=159.2, F=0.47/
&RAMP ID='WOOD_RAMP_Q', T=160.21, F=0.4/
&RAMP ID='WOOD_RAMP_Q', T=161.23, F=0.44/
&RAMP ID='WOOD_RAMP_Q', T=162.24, F=0.4/
&RAMP ID='WOOD_RAMP_Q', T=163.26, F=0.42/
&RAMP ID='WOOD_RAMP_Q', T=164.27, F=0.4/
&RAMP ID='WOOD_RAMP_Q', T=165.28, F=0.43/
&RAMP ID='WOOD_RAMP_Q', T=166.3, F=0.4/
&RAMP ID='WOOD_RAMP_Q', T=167.31, F=0.47/
&RAMP ID='WOOD_RAMP_Q', T=168.32, F=0.39/
&RAMP ID='WOOD_RAMP_Q', T=169.34, F=0.45/
&RAMP ID='WOOD_RAMP_Q', T=170.35, F=0.43/
&RAMP ID='WOOD_RAMP_Q', T=171.37, F=0.42/
&RAMP ID='WOOD_RAMP_Q', T=172.38, F=0.38/
&RAMP ID='WOOD_RAMP_Q', T=173.4, F=0.36/
&RAMP ID='WOOD_RAMP_Q', T=174.41, F=0.42/
&RAMP ID='WOOD_RAMP_Q', T=175.42, F=0.38/
&RAMP ID='WOOD_RAMP_Q', T=176.44, F=0.37/
&RAMP ID='WOOD_RAMP_Q', T=177.45, F=0.39/
&RAMP ID='WOOD_RAMP_Q', T=179.4, F=0.36/
&RAMP ID='WOOD_RAMP_Q', T=179.75, F=0.35/
&RAMP ID='WOOD_RAMP_Q', T=180.49, F=0.44/
&RAMP ID='WOOD_RAMP_Q', T=181.51, F=0.34/
&RAMP ID='WOOD_RAMP_Q', T=182.52, F=0.4/
&RAMP ID='WOOD_RAMP_Q', T=183.54, F=0.34/
&RAMP ID='WOOD_RAMP_Q', T=184.55, F=0.41/
&RAMP ID='WOOD_RAMP_Q', T=185.56, F=0.42/
&RAMP ID='WOOD_RAMP_Q', T=186.58, F=0.37/
&RAMP ID='WOOD_RAMP_Q', T=187.59, F=0.38/
&RAMP ID='WOOD_RAMP_Q', T=188.61, F=0.45/
&RAMP ID='WOOD_RAMP_Q', T=189.62, F=0.35/
&RAMP ID='WOOD_RAMP_Q', T=190.63, F=0.38/
&RAMP ID='WOOD_RAMP_Q', T=191.65, F=0.3/
&RAMP ID='WOOD_RAMP_Q', T=192.66, F=0.36/
&RAMP ID='WOOD_RAMP_Q', T=193.68, F=0.31/
&RAMP ID='WOOD_RAMP_Q', T=194.69, F=0.36/
&RAMP ID='WOOD_RAMP_Q', T=195.7, F=0.33/
&RAMP ID='WOOD_RAMP_Q', T=196.72, F=0.37/
&RAMP ID='WOOD_RAMP_Q', T=197.73, F=0.31/
&RAMP ID='WOOD_RAMP_Q', T=198.75, F=0.37/
&RAMP ID='WOOD_RAMP_Q', T=199.76, F=0.31/
&RAMP ID='WOOD_RAMP_Q', T=200.77, F=0.33/
&RAMP ID='WOOD_RAMP_Q', T=201.79, F=0.33/
&RAMP ID='WOOD_RAMP_Q', T=202.8, F=0.38/
&RAMP ID='WOOD_RAMP_Q', T=203.82, F=0.33/
&RAMP ID='WOOD_RAMP_Q', T=204.83, F=0.37/
&RAMP ID='WOOD_RAMP_Q', T=205.84, F=0.29/
&RAMP ID='WOOD_RAMP_Q', T=206.86, F=0.3/
&RAMP ID='WOOD_RAMP_Q', T=207.87, F=0.36/
&RAMP ID='WOOD_RAMP_Q', T=208.89, F=0.39/
&RAMP ID='WOOD_RAMP_Q', T=209.9, F=0.31/
&RAMP ID='WOOD_RAMP_Q', T=210.92, F=0.36/
&RAMP ID='WOOD_RAMP_Q', T=211.93, F=0.3/
&RAMP ID='WOOD_RAMP_Q', T=212.94, F=0.3/
&RAMP ID='WOOD_RAMP_Q', T=213.96, F=0.43/
&RAMP ID='WOOD_RAMP_Q', T=214.97, F=0.39/
&RAMP ID='WOOD_RAMP_Q', T=215.98, F=0.36/
&RAMP ID='WOOD_RAMP_Q', T=217.0, F=0.35/
&RAMP ID='WOOD_RAMP_Q', T=218.01, F=0.38/
&RAMP ID='WOOD_RAMP_Q', T=219.03, F=0.37/
&RAMP ID='WOOD_RAMP_Q', T=220.04, F=0.37/
&RAMP ID='WOOD_RAMP_Q', T=221.06, F=0.37/
&RAMP ID='WOOD_RAMP_Q', T=222.07, F=0.35/
&RAMP ID='WOOD_RAMP_Q', T=223.08, F=0.36/
&RAMP ID='WOOD_RAMP_Q', T=224.1, F=0.37/
&RAMP ID='WOOD_RAMP_Q', T=225.11, F=0.36/
&RAMP ID='WOOD_RAMP_Q', T=226.13, F=0.36/
&RAMP ID='WOOD_RAMP_Q', T=227.14, F=0.32/
&RAMP ID='WOOD_RAMP_Q', T=228.15, F=0.39/
&RAMP ID='WOOD_RAMP_Q', T=229.17, F=0.32/
&RAMP ID='WOOD_RAMP_Q', T=230.18, F=0.37/
&RAMP ID='WOOD_RAMP_Q', T=231.2, F=0.35/
&RAMP ID='WOOD_RAMP_Q', T=232.21, F=0.41/
&RAMP ID='WOOD_RAMP_Q', T=233.22, F=0.36/
&RAMP ID='WOOD_RAMP_Q', T=234.24, F=0.37/
&RAMP ID='WOOD_RAMP_Q', T=235.25, F=0.34/
&RAMP ID='WOOD_RAMP_Q', T=236.26, F=0.35/
&RAMP ID='WOOD_RAMP_Q', T=237.28, F=0.33/
&RAMP ID='WOOD_RAMP_Q', T=238.29, F=0.36/
&RAMP ID='WOOD_RAMP_Q', T=239.31, F=0.34/
&RAMP ID='WOOD_RAMP_Q', T=240.32, F=0.41/
&RAMP ID='WOOD_RAMP_Q', T=241.34, F=0.31/
&RAMP ID='WOOD_RAMP_Q', T=242.35, F=0.43/
&RAMP ID='WOOD_RAMP_Q', T=243.36, F=0.31/
&RAMP ID='WOOD_RAMP_Q', T=244.38, F=0.29/
&RAMP ID='WOOD_RAMP_Q', T=245.39, F=0.33/
&RAMP ID='WOOD_RAMP_Q', T=246.41, F=0.38/
&RAMP ID='WOOD_RAMP_Q', T=247.42, F=0.3/
&RAMP ID='WOOD_RAMP_Q', T=248.43, F=0.36/
&RAMP ID='WOOD_RAMP_Q', T=249.45, F=0.29/
&RAMP ID='WOOD_RAMP_Q', T=250.46, F=0.37/
&RAMP ID='WOOD_RAMP_Q', T=251.47, F=0.29/
&RAMP ID='WOOD_RAMP_Q', T=252.49, F=0.39/
&RAMP ID='WOOD_RAMP_Q', T=253.5, F=0.31/
&RAMP ID='WOOD_RAMP_Q', T=254.52, F=0.37/
&RAMP ID='WOOD_RAMP_Q', T=255.53, F=0.35/
&RAMP ID='WOOD_RAMP_Q', T=256.54, F=0.34/
&RAMP ID='WOOD_RAMP_Q', T=257.56, F=0.31/
&RAMP ID='WOOD_RAMP_Q', T=258.57, F=0.35/
&RAMP ID='WOOD_RAMP_Q', T=259.59, F=0.35/
&RAMP ID='WOOD_RAMP_Q', T=260.6, F=0.38/
&RAMP ID='WOOD_RAMP_Q', T=261.62, F=0.35/
&RAMP ID='WOOD_RAMP_Q', T=262.63, F=0.3/
&RAMP ID='WOOD_RAMP_Q', T=263.64, F=0.31/
&RAMP ID='WOOD_RAMP_Q', T=264.66, F=0.38/
&RAMP ID='WOOD_RAMP_Q', T=265.67, F=0.32/
&RAMP ID='WOOD_RAMP_Q', T=266.69, F=0.4/
&RAMP ID='WOOD_RAMP_Q', T=267.7, F=0.36/
&RAMP ID='WOOD_RAMP_Q', T=268.71, F=0.34/
&RAMP ID='WOOD_RAMP_Q', T=269.73, F=0.36/
&RAMP ID='WOOD_RAMP_Q', T=270.74, F=0.32/
&RAMP ID='WOOD_RAMP_Q', T=271.75, F=0.34/
&RAMP ID='WOOD_RAMP_Q', T=272.77, F=0.37/
&RAMP ID='WOOD_RAMP_Q', T=273.78, F=0.35/
&RAMP ID='WOOD_RAMP_Q', T=274.8, F=0.35/
&RAMP ID='WOOD_RAMP_Q', T=275.81, F=0.38/
&RAMP ID='WOOD_RAMP_Q', T=276.83, F=0.34/
&RAMP ID='WOOD_RAMP_Q', T=277.84, F=0.4/
&RAMP ID='WOOD_RAMP_Q', T=278.85, F=0.3/
&RAMP ID='WOOD_RAMP_Q', T=280.69, F=0.35/
&RAMP ID='WOOD_RAMP_Q', T=281.04, F=0.35/
&RAMP ID='WOOD_RAMP_Q', T=281.9, F=0.42/
&RAMP ID='WOOD_RAMP_Q', T=282.91, F=0.32/
&RAMP ID='WOOD_RAMP_Q', T=283.92, F=0.37/
&RAMP ID='WOOD_RAMP_Q', T=284.94, F=0.35/
&RAMP ID='WOOD_RAMP_Q', T=285.95, F=0.43/
&RAMP ID='WOOD_RAMP_Q', T=286.96, F=0.33/
&RAMP ID='WOOD_RAMP_Q', T=287.98, F=0.4/
&RAMP ID='WOOD_RAMP_Q', T=288.99, F=0.3/
&RAMP ID='WOOD_RAMP_Q', T=290.01, F=0.39/
&RAMP ID='WOOD_RAMP_Q', T=291.02, F=0.32/
&RAMP ID='WOOD_RAMP_Q', T=292.04, F=0.35/
&RAMP ID='WOOD_RAMP_Q', T=293.05, F=0.34/
&RAMP ID='WOOD_RAMP_Q', T=294.06, F=0.33/
&RAMP ID='WOOD_RAMP_Q', T=295.08, F=0.28/
&RAMP ID='WOOD_RAMP_Q', T=296.09, F=0.39/
&RAMP ID='WOOD_RAMP_Q', T=297.11, F=0.3/
&RAMP ID='WOOD_RAMP_Q', T=298.12, F=0.36/
&RAMP ID='WOOD_RAMP_Q', T=299.13, F=0.3/
&RAMP ID='WOOD_RAMP_Q', T=300.15, F=0.41/
&RAMP ID='WOOD_RAMP_Q', T=301.16, F=0.33/
&RAMP ID='WOOD_RAMP_Q', T=302.17, F=0.38/
&RAMP ID='WOOD_RAMP_Q', T=303.19, F=0.31/
&RAMP ID='WOOD_RAMP_Q', T=304.2, F=0.35/
&RAMP ID='WOOD_RAMP_Q', T=305.22, F=0.31/
&RAMP ID='WOOD_RAMP_Q', T=306.23, F=0.34/
&RAMP ID='WOOD_RAMP_Q', T=307.24, F=0.34/
&RAMP ID='WOOD_RAMP_Q', T=308.26, F=0.39/
&RAMP ID='WOOD_RAMP_Q', T=309.27, F=0.32/
&RAMP ID='WOOD_RAMP_Q', T=310.29, F=0.36/
&RAMP ID='WOOD_RAMP_Q', T=311.3, F=0.3/
&RAMP ID='WOOD_RAMP_Q', T=312.32, F=0.38/
&RAMP ID='WOOD_RAMP_Q', T=313.33, F=0.36/
&RAMP ID='WOOD_RAMP_Q', T=314.34, F=0.35/
&RAMP ID='WOOD_RAMP_Q', T=315.36, F=0.32/
&RAMP ID='WOOD_RAMP_Q', T=316.37, F=0.31/
&RAMP ID='WOOD_RAMP_Q', T=317.39, F=0.39/
&RAMP ID='WOOD_RAMP_Q', T=318.4, F=0.31/
&RAMP ID='WOOD_RAMP_Q', T=319.41, F=0.36/
&RAMP ID='WOOD_RAMP_Q', T=320.43, F=0.34/
&RAMP ID='WOOD_RAMP_Q', T=321.44, F=0.31/
&RAMP ID='WOOD_RAMP_Q', T=322.45, F=0.33/
&RAMP ID='WOOD_RAMP_Q', T=323.47, F=0.34/
&RAMP ID='WOOD_RAMP_Q', T=324.48, F=0.33/
&RAMP ID='WOOD_RAMP_Q', T=325.5, F=0.34/
&RAMP ID='WOOD_RAMP_Q', T=326.51, F=0.33/
&RAMP ID='WOOD_RAMP_Q', T=327.52, F=0.36/
&RAMP ID='WOOD_RAMP_Q', T=328.54, F=0.33/
&RAMP ID='WOOD_RAMP_Q', T=329.55, F=0.41/
&RAMP ID='WOOD_RAMP_Q', T=330.57, F=0.31/
&RAMP ID='WOOD_RAMP_Q', T=331.58, F=0.38/
&RAMP ID='WOOD_RAMP_Q', T=332.6, F=0.29/
&RAMP ID='WOOD_RAMP_Q', T=333.61, F=0.33/
&RAMP ID='WOOD_RAMP_Q', T=334.62, F=0.32/
&RAMP ID='WOOD_RAMP_Q', T=335.64, F=0.41/
&RAMP ID='WOOD_RAMP_Q', T=336.65, F=0.31/
&RAMP ID='WOOD_RAMP_Q', T=337.67, F=0.34/
&RAMP ID='WOOD_RAMP_Q', T=338.68, F=0.35/
&RAMP ID='WOOD_RAMP_Q', T=339.69, F=0.39/
&RAMP ID='WOOD_RAMP_Q', T=340.71, F=0.33/
&RAMP ID='WOOD_RAMP_Q', T=341.72, F=0.35/
&RAMP ID='WOOD_RAMP_Q', T=342.74, F=0.31/
&RAMP ID='WOOD_RAMP_Q', T=343.75, F=0.39/
&RAMP ID='WOOD_RAMP_Q', T=344.76, F=0.34/
&RAMP ID='WOOD_RAMP_Q', T=345.78, F=0.32/
&RAMP ID='WOOD_RAMP_Q', T=346.79, F=0.28/
&RAMP ID='WOOD_RAMP_Q', T=347.81, F=0.38/
&RAMP ID='WOOD_RAMP_Q', T=348.82, F=0.29/
&RAMP ID='WOOD_RAMP_Q', T=349.83, F=0.38/
&RAMP ID='WOOD_RAMP_Q', T=350.85, F=0.31/
&RAMP ID='WOOD_RAMP_Q', T=351.86, F=0.34/
&RAMP ID='WOOD_RAMP_Q', T=352.88, F=0.38/
&RAMP ID='WOOD_RAMP_Q', T=353.89, F=0.38/
&RAMP ID='WOOD_RAMP_Q', T=354.9, F=0.38/
&RAMP ID='WOOD_RAMP_Q', T=355.92, F=0.38/
&RAMP ID='WOOD_RAMP_Q', T=356.93, F=0.34/
&RAMP ID='WOOD_RAMP_Q', T=357.95, F=0.32/
&RAMP ID='WOOD_RAMP_Q', T=358.96, F=0.34/
&RAMP ID='WOOD_RAMP_Q', T=359.97, F=0.33/
&RAMP ID='WOOD_RAMP_Q', T=360.99, F=0.39/
&RAMP ID='WOOD_RAMP_Q', T=362.0, F=0.36/
&RAMP ID='WOOD_RAMP_Q', T=363.02, F=0.42/
&RAMP ID='WOOD_RAMP_Q', T=364.03, F=0.29/
&RAMP ID='WOOD_RAMP_Q', T=365.05, F=0.34/
&RAMP ID='WOOD_RAMP_Q', T=366.06, F=0.35/
&RAMP ID='WOOD_RAMP_Q', T=367.07, F=0.39/
&RAMP ID='WOOD_RAMP_Q', T=368.09, F=0.34/
&RAMP ID='WOOD_RAMP_Q', T=369.1, F=0.42/
&RAMP ID='WOOD_RAMP_Q', T=370.17, F=0.44/
&RAMP ID='WOOD_RAMP_Q', T=371.13, F=0.39/
&RAMP ID='WOOD_RAMP_Q', T=372.14, F=0.35/
&RAMP ID='WOOD_RAMP_Q', T=373.16, F=0.43/
&RAMP ID='WOOD_RAMP_Q', T=374.17, F=0.37/
&RAMP ID='WOOD_RAMP_Q', T=375.19, F=0.44/
&RAMP ID='WOOD_RAMP_Q', T=376.23, F=0.41/
&RAMP ID='WOOD_RAMP_Q', T=377.21, F=0.42/
&RAMP ID='WOOD_RAMP_Q', T=378.23, F=0.36/
&RAMP ID='WOOD_RAMP_Q', T=379.24, F=0.4/
&RAMP ID='WOOD_RAMP_Q', T=380.26, F=0.35/
&RAMP ID='WOOD_RAMP_Q', T=381.94, F=0.36/
&RAMP ID='WOOD_RAMP_Q', T=382.28, F=0.33/
&RAMP ID='WOOD_RAMP_Q', T=383.3, F=0.43/
&RAMP ID='WOOD_RAMP_Q', T=384.31, F=0.36/
&RAMP ID='WOOD_RAMP_Q', T=385.32, F=0.41/
&RAMP ID='WOOD_RAMP_Q', T=386.38, F=0.41/
&RAMP ID='WOOD_RAMP_Q', T=387.35, F=0.35/
&RAMP ID='WOOD_RAMP_Q', T=388.37, F=0.38/
&RAMP ID='WOOD_RAMP_Q', T=389.38, F=0.41/
&RAMP ID='WOOD_RAMP_Q', T=390.39, F=0.36/
&RAMP ID='WOOD_RAMP_Q', T=391.41, F=0.42/
&RAMP ID='WOOD_RAMP_Q', T=392.42, F=0.4/
&RAMP ID='WOOD_RAMP_Q', T=393.44, F=0.38/
&RAMP ID='WOOD_RAMP_Q', T=394.45, F=0.37/
&RAMP ID='WOOD_RAMP_Q', T=395.46, F=0.41/
&RAMP ID='WOOD_RAMP_Q', T=396.48, F=0.38/
&RAMP ID='WOOD_RAMP_Q', T=397.49, F=0.38/
&RAMP ID='WOOD_RAMP_Q', T=398.51, F=0.4/
&RAMP ID='WOOD_RAMP_Q', T=399.52, F=0.36/
&RAMP ID='WOOD_RAMP_Q', T=400.54, F=0.4/
&RAMP ID='WOOD_RAMP_Q', T=401.55, F=0.4/
&RAMP ID='WOOD_RAMP_Q', T=402.56, F=0.33/
&RAMP ID='WOOD_RAMP_Q', T=403.58, F=0.37/
&RAMP ID='WOOD_RAMP_Q', T=404.59, F=0.46/
&RAMP ID='WOOD_RAMP_Q', T=405.61, F=0.39/
&RAMP ID='WOOD_RAMP_Q', T=406.62, F=0.4/
&RAMP ID='WOOD_RAMP_Q', T=407.63, F=0.35/
&RAMP ID='WOOD_RAMP_Q', T=408.65, F=0.39/
&RAMP ID='WOOD_RAMP_Q', T=409.66, F=0.39/
&RAMP ID='WOOD_RAMP_Q', T=410.67, F=0.38/
&RAMP ID='WOOD_RAMP_Q', T=411.69, F=0.4/
&RAMP ID='WOOD_RAMP_Q', T=412.7, F=0.39/
&RAMP ID='WOOD_RAMP_Q', T=413.72, F=0.34/
&RAMP ID='WOOD_RAMP_Q', T=414.73, F=0.37/
&RAMP ID='WOOD_RAMP_Q', T=415.74, F=0.35/
&RAMP ID='WOOD_RAMP_Q', T=416.76, F=0.41/
&RAMP ID='WOOD_RAMP_Q', T=417.77, F=0.39/
&RAMP ID='WOOD_RAMP_Q', T=418.79, F=0.39/
&RAMP ID='WOOD_RAMP_Q', T=419.8, F=0.41/
&RAMP ID='WOOD_RAMP_Q', T=420.91, F=0.37/
&RAMP ID='WOOD_RAMP_Q', T=421.83, F=0.38/
&RAMP ID='WOOD_RAMP_Q', T=422.84, F=0.36/
&RAMP ID='WOOD_RAMP_Q', T=423.95, F=0.38/
&RAMP ID='WOOD_RAMP_Q', T=425.02, F=0.34/
&RAMP ID='WOOD_RAMP_Q', T=425.88, F=0.43/
&RAMP ID='WOOD_RAMP_Q', T=426.9, F=0.4/
&RAMP ID='WOOD_RAMP_Q', T=427.91, F=0.34/
&RAMP ID='WOOD_RAMP_Q', T=428.93, F=0.45/
&RAMP ID='WOOD_RAMP_Q', T=429.94, F=0.4/
&RAMP ID='WOOD_RAMP_Q', T=430.95, F=0.55/
&RAMP ID='WOOD_RAMP_Q', T=431.97, F=0.42/
&RAMP ID='WOOD_RAMP_Q', T=432.98, F=0.43/
&RAMP ID='WOOD_RAMP_Q', T=434.0, F=0.4/
&RAMP ID='WOOD_RAMP_Q', T=435.01, F=0.44/
&RAMP ID='WOOD_RAMP_Q', T=436.02, F=0.35/
&RAMP ID='WOOD_RAMP_Q', T=437.04, F=0.4/
&RAMP ID='WOOD_RAMP_Q', T=438.05, F=0.36/
&RAMP ID='WOOD_RAMP_Q', T=439.07, F=0.41/
&RAMP ID='WOOD_RAMP_Q', T=440.08, F=0.39/
&RAMP ID='WOOD_RAMP_Q', T=441.09, F=0.47/
&RAMP ID='WOOD_RAMP_Q', T=442.11, F=0.47/
&RAMP ID='WOOD_RAMP_Q', T=443.12, F=0.46/
&RAMP ID='WOOD_RAMP_Q', T=444.14, F=0.47/
&RAMP ID='WOOD_RAMP_Q', T=445.15, F=0.41/
&RAMP ID='WOOD_RAMP_Q', T=446.16, F=0.41/
&RAMP ID='WOOD_RAMP_Q', T=447.29, F=0.45/
&RAMP ID='WOOD_RAMP_Q', T=448.19, F=0.4/
&RAMP ID='WOOD_RAMP_Q', T=449.21, F=0.49/
&RAMP ID='WOOD_RAMP_Q', T=450.22, F=0.43/
&RAMP ID='WOOD_RAMP_Q', T=451.23, F=0.5/
&RAMP ID='WOOD_RAMP_Q', T=452.25, F=0.42/
&RAMP ID='WOOD_RAMP_Q', T=453.26, F=0.37/
&RAMP ID='WOOD_RAMP_Q', T=454.28, F=0.42/
&RAMP ID='WOOD_RAMP_Q', T=455.29, F=0.5/
&RAMP ID='WOOD_RAMP_Q', T=456.3, F=0.48/
&RAMP ID='WOOD_RAMP_Q', T=457.32, F=0.37/
&RAMP ID='WOOD_RAMP_Q', T=458.33, F=0.43/
&RAMP ID='WOOD_RAMP_Q', T=459.35, F=0.38/
&RAMP ID='WOOD_RAMP_Q', T=460.36, F=0.48/
&RAMP ID='WOOD_RAMP_Q', T=461.37, F=0.43/
&RAMP ID='WOOD_RAMP_Q', T=462.39, F=0.47/
&RAMP ID='WOOD_RAMP_Q', T=463.4, F=0.43/
&RAMP ID='WOOD_RAMP_Q', T=464.51, F=0.45/
&RAMP ID='WOOD_RAMP_Q', T=465.43, F=0.39/
&RAMP ID='WOOD_RAMP_Q', T=466.44, F=0.43/
&RAMP ID='WOOD_RAMP_Q', T=467.46, F=0.4/
&RAMP ID='WOOD_RAMP_Q', T=468.47, F=0.46/
&RAMP ID='WOOD_RAMP_Q', T=469.63, F=0.46/
&RAMP ID='WOOD_RAMP_Q', T=470.5, F=0.47/
&RAMP ID='WOOD_RAMP_Q', T=471.51, F=0.41/
&RAMP ID='WOOD_RAMP_Q', T=472.53, F=0.43/
&RAMP ID='WOOD_RAMP_Q', T=473.54, F=0.39/
&RAMP ID='WOOD_RAMP_Q', T=474.56, F=0.44/
&RAMP ID='WOOD_RAMP_Q', T=475.57, F=0.4/
&RAMP ID='WOOD_RAMP_Q', T=476.58, F=0.46/
&RAMP ID='WOOD_RAMP_Q', T=477.6, F=0.42/
&RAMP ID='WOOD_RAMP_Q', T=478.61, F=0.44/
&RAMP ID='WOOD_RAMP_Q', T=479.63, F=0.38/
&RAMP ID='WOOD_RAMP_Q', T=480.64, F=0.44/
&RAMP ID='WOOD_RAMP_Q', T=481.65, F=0.37/
&RAMP ID='WOOD_RAMP_Q', T=483.36, F=0.36/
&RAMP ID='WOOD_RAMP_Q', T=483.71, F=0.42/
&RAMP ID='WOOD_RAMP_Q', T=484.7, F=0.46/
&RAMP ID='WOOD_RAMP_Q', T=485.71, F=0.36/
&RAMP ID='WOOD_RAMP_Q', T=486.72, F=0.48/
&RAMP ID='WOOD_RAMP_Q', T=487.74, F=0.39/
&RAMP ID='WOOD_RAMP_Q', T=488.87, F=0.45/
&RAMP ID='WOOD_RAMP_Q', T=489.77, F=0.38/
&RAMP ID='WOOD_RAMP_Q', T=490.78, F=0.42/